Circuit: * E:\OperaDownload\2019B\Electronica I\ElectronicaI-TP1\Simulacion.asc

Direct Newton iteration for .op point succeeded.

Date: Mon Sep 23 16:53:52 2019
Total elapsed time: 0.337 seconds.

tnom = 27
temp = 27
method = trap
totiter = 16
traniter = 0
tranpoints = 0
accept = 0
rejected = 0
matrix size = 10
fillins = 0
solver = Normal
Matrix Compiler1:      26 opcodes
Matrix Compiler2: 740 bytes object code size
