Circuit: * E:\OperaDownload\2019B\Electronica I\ElectronicaI-TP1\Simulacion.asc

WARNING: Less than two connections to node N003.  This node is used by R6.
Direct Newton iteration for .op point succeeded.

Date: Fri Sep 20 16:55:28 2019
Total elapsed time: 0.093 seconds.

tnom = 27
temp = 27
method = trap
totiter = 16
traniter = 0
tranpoints = 0
accept = 0
rejected = 0
matrix size = 11
fillins = 0
solver = Normal
Matrix Compiler1:      29 opcodes
Matrix Compiler2: 813 bytes object code size
